10
PDB File
 S   -0.215000    0.238000    0.000000
 O   -1.253000    0.015000    0.986000
 O   -0.197000   -0.538000   -1.228000
 S    2.583000    0.556000    0.000000
 O    2.565000    1.331000   -1.228000
 O    3.621000    0.779000    0.985000
 F   -0.508000    1.798000   -0.530000
 F    2.874000   -1.004000   -0.530000
 N    1.184000    0.398000    0.772000
Li    5.019000    0.253000   -0.366000
