8
PDB File
 P    0.137000    1.072000    0.000000
 F    0.137000    1.072000    1.645000
 F    0.137000    2.717000    0.000000
 F    1.782000    1.072000    0.000000
 F    0.137000    1.072000   -1.645000
 F    0.137000   -0.573000    0.000000
 F   -1.509000    1.072000    0.000000
Li   -3.508000    1.115000    0.000000
