16
PDB File
 S   -0.230000   -3.309000    1.156000
 O   -0.754000   -2.288000    2.064000
 O    0.131000   -4.618000    1.701000
 S    2.028000   -3.331000   -0.615000
 O    1.896000   -4.772000   -0.831000
 O    2.414000   -2.481000   -1.740000
 N    0.834000   -2.596000    0.178000
 C   -1.673000   -3.660000   -0.018000
 C    3.471000   -3.159000    0.599000
 F   -2.690000   -4.195000    0.672000
 F   -2.096000   -2.531000   -0.597000
 F   -1.303000   -4.520000   -0.973000
 F    4.572000   -3.712000    0.069000
 F    3.195000   -3.776000    1.753000
 F    3.722000   -1.869000    0.853000
Li    0.766000   -0.967000    0.282000
